 &time_control
 run_days                            = 0,
 run_hours                           = 120,
 run_minutes                         = 0,
 run_seconds                         = 0,
 start_year                          = 2021, 2021, 2021,
 start_month                         = 04,   04,   04,
 start_day                           = 20,   20,   20,
 start_hour                          = 00,   00,   00,
 end_year                            = 2021, 2021, 2021,
 end_month                           = 04,   04,   04,
 end_day                             = 25,   25,   25,
 end_hour                            = 00,   00,   00,
 interval_seconds                    = 21600
 input_from_file                     = .true.,.true.,.true.,
 history_interval                    = 180,  60,   60,
 frames_per_outfile                  = 1000, 1000, 1000,
 restart                             = .false.,
 restart_interval                    = 1440,
 io_form_history                     = 2
 io_form_restart                     = 2
 io_form_input                       = 2
 io_form_boundary                    = 2
 /

 &domains
 time_step                           = 150,
 time_step_fract_num                 = 0,
 time_step_fract_den                 = 1,
 max_dom                             = 3,
 e_we                                = 74,    112,   121,
 e_sn                                = 61,    97,    121,
 s_vert                              = 1,
 e_vert                              = 35,    35,    35,
 p_top_requested                     = 5000,
 num_metgrid_levels                  = 34,
 num_metgrid_soil_levels             = 4,
 dx                                  = 30000, 10000,  3333.33,
 dy                                  = 30000, 10000,  3333.33,
 grid_id                             = 1,     2,     3,
 parent_id                           = 1,     1,     2,
 i_parent_start                      = 1,     20,    25,
 j_parent_start                      = 1,     17,    45,
 parent_grid_ratio                   = 1,     3,     3,
 parent_time_step_ratio              = 1,     3,     3,
 feedback                            = 0,
 smooth_option                       = 0
 /

 &physics
 physics_suite                       = 'CONUS'
 mp_physics                          = 14,    14,    14,
 cu_physics                          = 14,    14,     14,
 ra_lw_physics                       = 1,    1,    1,
 ra_sw_physics                       = 5,    5,    5,
 bl_pbl_physics                      = 7,    7,    7,
 sf_sfclay_physics                   = 1,    1,    1,
 sf_surface_physics                  = 7,    7,    7,
 radt                                = 30,    30,    30,
 bldt                                = 0,     0,     0,
 cudt                                = 5,     5,     5,
 icloud                              = 1,
 num_land_cat                        = 21,
 sf_urban_physics                    = 0,     0,     0,
 /

 &fdda
 /

 &dynamics
 hybrid_opt                          = 2, 
 w_damping                           = 0,
 diff_opt                            = 1,      1,      1,
 km_opt                              = 4,      4,      4,
 diff_6th_opt                        = 0,      0,      0,
 diff_6th_factor                     = 0.12,   0.12,   0.12,
 base_temp                           = 290.
 damp_opt                            = 3,
 zdamp                               = 5000.,  5000.,  5000.,
 dampcoef                            = 0.2,    0.2,    0.2
 khdif                               = 0,      0,      0,
 kvdif                               = 0,      0,      0,
 non_hydrostatic                     = .true., .true., .true.,
 moist_adv_opt                       = 1,      1,      1,     
 scalar_adv_opt                      = 1,      1,      1,     
 gwd_opt                             = 1,
 /

 &bdy_control
 spec_bdy_width                      = 5,
 specified                           = .true.
 /

 &grib2
 /

 &namelist_quilt
 nio_tasks_per_group = 0,
 nio_groups = 1,
 /
